/*--------------------------------*- C++ -*----------------------------------*\

| =========                 |                                                 |
| \\      /  F ield         | OpenFOAM: The Open Source CFD Toolbox           |
|  \\    /   O peration     | Version:  2.2.2                                 |
|   \\  /    A nd           | Web:      www.OpenFOAM.org                      |
|    \\/     M anipulation  |                                                 |
\*---------------------------------------------------------------------------*/
FoamFile
{
    version     2.0;
    format      ascii;
    class       dictionary;
    location    "system";
    object      fvSchemes;
}
// * * * * * * * * * * * * * * * * * * * * * * * * * * * * * * * * * * * * * //

ddtSchemes
{
    //default         Euler;   //Primo Ordine
    //default         backward;  //Secondo Ordine 
    default	steadyState;
}

gradSchemes
{
    default         Gauss linear;
    grad(p)         Gauss linear;
    grad(U)         Gauss linear;
}

divSchemes
{
    default         none;
    div(phi,U)          Gauss linearUpwind grad(U);
    div(phi,nuTilda)    Gauss linearUpwind grad(nuTilda);
    div(phi,gamma)      Gauss linearUpwind grad(gamma);
    div(phi,ReThetatTilda)      Gauss linearUpwind grad(ReThetatTilda);
    div(phi,R)         Gauss linearUpwind;
    div(R)             Gauss linearUpwind;
    div((nuEff*dev(T(grad(U))))) Gauss linear;

//    default         none;
//    div(phi,U)          Gauss Gamma 0.15;
//    div(phi,nuTilda)    Gauss Gamma 0.15;
//    div(phi,gamma)      Gauss Gamma 0.15;
//    div(phi,gamma)      Gauss Gamma 0.15;
//    div(phi,ReThetatTilda)      Gauss Gamma 0.15;
//    div(phi,R)          Gauss Gamma 0.15;
//    div(R)              Gauss Gamma 0.15;
//    div((nuEff*dev(T(grad(U))))) Gauss linear;


}

laplacianSchemes
{
    default                        none;
    laplacian(nuEff,U)             Gauss linear corrected;
    laplacian((1|A(U)),p)          Gauss linear corrected;
    laplacian(DkEff,k)             Gauss linear corrected;
    laplacian(DepsilonEff,epsilon) Gauss linear corrected;
    laplacian(DREff,R)             Gauss linear corrected;
    laplacian(DnuTildaEff,nuTilda) Gauss linear corrected;
    laplacian(DomegaEff,omega) Gauss linear corrected;
    laplacian(DReThetatTildaEff,ReThetatTilda)  Gauss linear corrected; 
    laplacian(DgammaEff,gamma)  Gauss linear corrected;
}

interpolationSchemes
{
    default         linear;
    interpolate(U)  linear;
}

snGradSchemes
{
    default         corrected;
}

fluxRequired
{
    default         no;
    p               ;
}


// ************************************************************************* //
