/*--------------------------------*- C++ -*----------------------------------*\
| =========                 |                                                 |
| \\      /  F ield         | OpenFOAM: The Open Source CFD Toolbox           |
|  \\    /   O peration     | Version:  2.2.2                                 |
|   \\  /    A nd           | Web:      www.OpenFOAM.org                      |
|    \\/     M anipulation  |                                                 |
\*---------------------------------------------------------------------------*/
FoamFile
{
    version     2.0;
    format      ascii;
    class       volScalarField;
    object      nuTilda;
}
// * * * * * * * * * * * * * * * * * * * * * * * * * * * * * * * * * * * * * //

#include        "initialConditions"

dimensions      [0 2 -1 0 0 0 0];

internalField   uniform $nuTilda;

boundaryField
{
    in 
    {
        type            fixedValue;
        value           $internalField;
    }
    out
    {
        type            zeroGradient;
    }
    w_dw 
    {
        type            fixedValue;
        value           uniform 0;
    }
    w_up
    {
        type            fixedValue;
        value           uniform 0;
    }
    empty
    {
        type            empty;
    }
}

// ************************************************************************* //
