/*--------------------------------*- C++ -*----------------------------------*\
| =========                 |                                                 |
| \\      /  F ield         | OpenFOAM: The Open Source CFD Toolbox           |
|  \\    /   O peration     | Version:  1.6                                   |
|   \\  /    A nd           | Web:      www.OpenFOAM.org                      |
|    \\/     M anipulation  |                                                 |
\*---------------------------------------------------------------------------*/
FoamFile
{
    version     2.0;
    format      ascii;
    class       volScalarField;
    location    "0";
    object      ReThetatTilda;
}
// * * * * * * * * * * * * * * * * * * * * * * * * * * * * * * * * * * * * * //

#include        "initialConditions"

dimensions      [0 0 0 0 0 0 0];

internalField   uniform $ReThetatTilda;

boundaryField
{
    in
    {
	type		fixedValue;
	value		$internalField;
    }
    out
    {
        type            zeroGradient;
    }
    w_dw
    {
        type            zeroGradient;
    }
    w_up
    {
        type            zeroGradient;
    }
    empty
    {
        type            empty;
    }
}


// ************************************************************************* //
